*-------------------------------------------------- 
*2SK60 
*GENERATED BY SIT MODELER @ AUDIOHOBBY.COM 
*MODEL RANGE: 55V, 5A 
*-------------------------------------------------- 
.SUBCKT 2SK60 D G S ; Drain Gate Source 
+ PARAMS: MU=18 X=1.57 K=0.06 N=2.7 VCT=0 RG=2MEG 
*-------------------------------------------------- 
B1 D S I=K*PWR(URAMP((V(G,S)+VCT)+(N*LN(V(D,S))+(V(D,S)/MU))),X) 
*FOR MULTISIM COMMENT OUT ABOVE LINE (*) AND UNCOMMENT NEXT LINE 
*B1 D S I=K*PWR(MAX((V(G,S)+VCT)+(N*LN(V(D,S))+(V(D,S)/MU)),0),X) 
R1 G S {RG} 
CGS G S 0P 
CGD G D 0P 
CDS G S 0P 
.ENDS 2SK82 
*-------------------------------------------------- 