*-------------------------------------------------- 
*2SK79 
*GENERATED BY SIT MODELER @ AUDIOHOBBY.COM 
*MODEL RANGE: 100V, .01A 
*-------------------------------------------------- 
.SUBCKT 2SK79 D G S ; Drain Gate Source 
+ PARAMS: MU=33.15 X=3.97 K=0.0023 N=.096 VCT=.62 RG=2MEG 
*-------------------------------------------------- 
B1 D S I=K*PWR(URAMP((V(G,S)+VCT)+(N*LN(V(D,S))+(V(D,S)/MU))),X) 
*FOR MULTISIM COMMENT OUT ABOVE LINE (*) AND UNCOMMENT NEXT LINE 
*B1 D S I=K*PWR(MAX((V(G,S)+VCT)+(N*LN(V(D,S))+(V(D,S)/MU)),0),X) 
R1 G S {RG} 
CGS G S 0P 
CGD G D 0P 
CDS G S 0P 
.ENDS 2SK82 
*-------------------------------------------------- 